24
Sheet
C 0 0 0
C 0.5 0.5 0
C 0.3699984182788532 0.13000158172114679 0.1648
C 0.6300015817211468 0.8699984182788532 0.1648
C 0.13000158172114679 0.6300015817211468 -0.1648
C 0.8699984182788532 0.3699984182788532 -0.1648
C 1 0 0
C 1.5 0.5 0
C 1.3699984182788532 0.13000158172114679 0.1648
C 1.6300015817211468 0.8699984182788532 0.1648
C 1.1300015817211468 0.6300015817211468 -0.1648
C 1.8699984182788532 0.3699984182788532 -0.1648
C 0 1 0
C 0.5 1.5 0
C 0.3699984182788532 1.1300015817211468 0.1648
C 0.6300015817211468 1.8699984182788532 0.1648
C 0.13000158172114679 1.6300015817211468 -0.1648
C 0.8699984182788532 1.3699984182788532 -0.1648
C 1 1 0
C 1.5 1.5 0
C 1.3699984182788532 1.1300015817211468 0.1648
C 1.6300015817211468 1.8699984182788532 0.1648
C 1.1300015817211468 1.6300015817211468 -0.1648
C 1.8699984182788532 1.3699984182788532 -0.1648
